* NGSPICE file created from user_analog_project_wrapper.ext - technology: sky130B

.subckt sky130_fd_sc_hd__clkbuf_4 X A VGND VPWR VNB VPB
X0 VPWR A a_27_47# VPB sky130_fd_pr__pfet_01v8_hvt ad=9.1e+11p pd=7.82e+06u as=2.65e+11p ps=2.53e+06u w=1e+06u l=150000u
X1 VGND a_27_47# X VNB sky130_fd_pr__nfet_01v8 ad=3.801e+11p pd=4.33e+06u as=2.352e+11p ps=2.8e+06u w=420000u l=150000u
X2 VGND a_27_47# X VNB sky130_fd_pr__nfet_01v8 ad=0p pd=0u as=0p ps=0u w=420000u l=150000u
X3 X a_27_47# VPWR VPB sky130_fd_pr__pfet_01v8_hvt ad=5.6e+11p pd=5.12e+06u as=0p ps=0u w=1e+06u l=150000u
X4 X a_27_47# VGND VNB sky130_fd_pr__nfet_01v8 ad=0p pd=0u as=0p ps=0u w=420000u l=150000u
X5 VGND A a_27_47# VNB sky130_fd_pr__nfet_01v8 ad=0p pd=0u as=1.113e+11p ps=1.37e+06u w=420000u l=150000u
X6 VPWR a_27_47# X VPB sky130_fd_pr__pfet_01v8_hvt ad=0p pd=0u as=0p ps=0u w=1e+06u l=150000u
X7 X a_27_47# VGND VNB sky130_fd_pr__nfet_01v8 ad=0p pd=0u as=0p ps=0u w=420000u l=150000u
X8 X a_27_47# VPWR VPB sky130_fd_pr__pfet_01v8_hvt ad=0p pd=0u as=0p ps=0u w=1e+06u l=150000u
X9 VPWR a_27_47# X VPB sky130_fd_pr__pfet_01v8_hvt ad=0p pd=0u as=0p ps=0u w=1e+06u l=150000u
.ends

.subckt sky130_fd_pr__pfet_01v8_LZABJ9 a_n73_n64# a_n33_n161# li_n175_n248# a_15_n64#
+ w_n211_n284#
X0 a_15_n64# a_n33_n161# a_n73_n64# w_n211_n284# sky130_fd_pr__pfet_01v8 ad=2.9e+11p pd=2.58e+06u as=2.9e+11p ps=2.58e+06u w=1e+06u l=150000u
.ends

.subckt sky130_fd_pr__pfet_01v8_LTABJ9 a_n33_n461# a_15_n364# li_n175_n548# w_n211_n584#
+ a_n73_n364#
X0 a_15_n364# a_n33_n461# a_n73_n364# w_n211_n584# sky130_fd_pr__pfet_01v8 ad=1.16e+12p pd=8.58e+06u as=1.16e+12p ps=8.58e+06u w=4e+06u l=150000u
.ends

.subckt sky130_fd_pr__nfet_01v8_RB5HKB a_15_n131# a_n175_n243# a_n33_91# li_n175_n243#
+ a_n73_n131#
X0 a_15_n131# a_n33_91# a_n73_n131# a_n175_n243# sky130_fd_pr__nfet_01v8 ad=2.9e+11p pd=2.58e+06u as=2.9e+11p ps=2.58e+06u w=1e+06u l=150000u
.ends

.subckt sky130_fd_pr__nfet_01v8_6H5H3D li_n175_n343# a_n33_191# a_n73_n231# a_15_n231#
+ a_n175_n343#
X0 a_15_n231# a_n33_191# a_n73_n231# a_n175_n343# sky130_fd_pr__nfet_01v8 ad=5.8e+11p pd=4.58e+06u as=5.8e+11p ps=4.58e+06u w=2e+06u l=150000u
.ends

.subckt sky130_fd_pr__nfet_01v8_LDKBCP a_n73_n81# a_n175_n193# li_n175_n193# a_n33_41#
+ a_15_n81#
X0 a_15_n81# a_n33_41# a_n73_n81# a_n175_n193# sky130_fd_pr__nfet_01v8 ad=1.45e+11p pd=1.58e+06u as=1.45e+11p ps=1.58e+06u w=500000u l=150000u
.ends

.subckt COMPA VOUTP VDD VOUTN VINN CLK VINP VSS
Xsky130_fd_pr__pfet_01v8_LZABJ9_3 VDD CLK sky130_fd_pr__pfet_01v8_LZABJ9_5/li_n175_n248#
+ m1_113_808# VDD sky130_fd_pr__pfet_01v8_LZABJ9
Xsky130_fd_pr__pfet_01v8_LZABJ9_5 m1_113_808# m1_757_1008# sky130_fd_pr__pfet_01v8_LZABJ9_5/li_n175_n248#
+ VDD VDD sky130_fd_pr__pfet_01v8_LZABJ9
Xsky130_fd_pr__pfet_01v8_LZABJ9_4 m1_541_888# CLK sky130_fd_pr__pfet_01v8_LZABJ9_5/li_n175_n248#
+ VDD VDD sky130_fd_pr__pfet_01v8_LZABJ9
Xsky130_fd_pr__pfet_01v8_LTABJ9_0 m1_757_1008# VOUTN sky130_fd_pr__pfet_01v8_LZABJ9_2/li_n175_n248#
+ VDD VDD sky130_fd_pr__pfet_01v8_LTABJ9
Xsky130_fd_pr__pfet_01v8_LTABJ9_1 m1_113_808# VDD sky130_fd_pr__pfet_01v8_LZABJ9_5/li_n175_n248#
+ VDD VOUTP sky130_fd_pr__pfet_01v8_LTABJ9
Xsky130_fd_pr__nfet_01v8_RB5HKB_0 m1_383_104# VSS CLK sky130_fd_pr__nfet_01v8_RB5HKB_0/li_n175_n243#
+ VSS sky130_fd_pr__nfet_01v8_RB5HKB
Xsky130_fd_pr__nfet_01v8_6H5H3D_0 sky130_fd_pr__nfet_01v8_6H5H3D_1/li_n175_n343# m1_757_1008#
+ VSS VOUTN VSS sky130_fd_pr__nfet_01v8_6H5H3D
Xsky130_fd_pr__pfet_01v8_LZABJ9_0 VDD CLK sky130_fd_pr__pfet_01v8_LZABJ9_2/li_n175_n248#
+ m1_1362_377# VDD sky130_fd_pr__pfet_01v8_LZABJ9
Xsky130_fd_pr__nfet_01v8_6H5H3D_1 sky130_fd_pr__nfet_01v8_6H5H3D_1/li_n175_n343# VINN
+ m1_1362_377# m1_383_104# VSS sky130_fd_pr__nfet_01v8_6H5H3D
Xsky130_fd_pr__nfet_01v8_LDKBCP_0 m1_757_1008# VSS sky130_fd_pr__nfet_01v8_RB5HKB_0/li_n175_n243#
+ m1_113_808# m1_1362_377# sky130_fd_pr__nfet_01v8_LDKBCP
Xsky130_fd_pr__pfet_01v8_LZABJ9_1 m1_757_1008# CLK sky130_fd_pr__pfet_01v8_LZABJ9_2/li_n175_n248#
+ VDD VDD sky130_fd_pr__pfet_01v8_LZABJ9
Xsky130_fd_pr__nfet_01v8_LDKBCP_1 m1_541_888# VSS sky130_fd_pr__nfet_01v8_RB5HKB_0/li_n175_n243#
+ m1_757_1008# m1_113_808# sky130_fd_pr__nfet_01v8_LDKBCP
Xsky130_fd_pr__nfet_01v8_6H5H3D_2 sky130_fd_pr__nfet_01v8_6H5H3D_3/li_n175_n343# VINP
+ m1_383_104# m1_541_888# VSS sky130_fd_pr__nfet_01v8_6H5H3D
Xsky130_fd_pr__pfet_01v8_LZABJ9_2 VDD m1_113_808# sky130_fd_pr__pfet_01v8_LZABJ9_2/li_n175_n248#
+ m1_757_1008# VDD sky130_fd_pr__pfet_01v8_LZABJ9
Xsky130_fd_pr__nfet_01v8_6H5H3D_3 sky130_fd_pr__nfet_01v8_6H5H3D_3/li_n175_n343# m1_113_808#
+ VOUTP VSS VSS sky130_fd_pr__nfet_01v8_6H5H3D
.ends

.subckt sky130_fd_sc_hd__clkinv_16 Y A VGND VPWR VNB VPB
X0 VGND A Y VNB sky130_fd_pr__nfet_01v8 ad=1.0605e+12p pd=1.261e+07u as=1.0059e+12p ps=1.151e+07u w=420000u l=150000u
X1 Y A VPWR VPB sky130_fd_pr__pfet_01v8_hvt ad=3.515e+12p pd=3.103e+07u as=3.655e+12p ps=3.331e+07u w=1e+06u l=150000u
X2 VPWR A Y VPB sky130_fd_pr__pfet_01v8_hvt ad=0p pd=0u as=0p ps=0u w=1e+06u l=150000u
X3 Y A VPWR VPB sky130_fd_pr__pfet_01v8_hvt ad=0p pd=0u as=0p ps=0u w=1e+06u l=150000u
X4 VGND A Y VNB sky130_fd_pr__nfet_01v8 ad=0p pd=0u as=0p ps=0u w=420000u l=150000u
X5 VPWR A Y VPB sky130_fd_pr__pfet_01v8_hvt ad=0p pd=0u as=0p ps=0u w=1e+06u l=150000u
X6 Y A VGND VNB sky130_fd_pr__nfet_01v8 ad=0p pd=0u as=0p ps=0u w=420000u l=150000u
X7 VGND A Y VNB sky130_fd_pr__nfet_01v8 ad=0p pd=0u as=0p ps=0u w=420000u l=150000u
X8 VPWR A Y VPB sky130_fd_pr__pfet_01v8_hvt ad=0p pd=0u as=0p ps=0u w=1e+06u l=150000u
X9 VPWR A Y VPB sky130_fd_pr__pfet_01v8_hvt ad=0p pd=0u as=0p ps=0u w=1e+06u l=150000u
X10 Y A VGND VNB sky130_fd_pr__nfet_01v8 ad=0p pd=0u as=0p ps=0u w=420000u l=150000u
X11 Y A VPWR VPB sky130_fd_pr__pfet_01v8_hvt ad=0p pd=0u as=0p ps=0u w=1e+06u l=150000u
X12 VPWR A Y VPB sky130_fd_pr__pfet_01v8_hvt ad=0p pd=0u as=0p ps=0u w=1e+06u l=150000u
X13 VGND A Y VNB sky130_fd_pr__nfet_01v8 ad=0p pd=0u as=0p ps=0u w=420000u l=150000u
X14 Y A VPWR VPB sky130_fd_pr__pfet_01v8_hvt ad=0p pd=0u as=0p ps=0u w=1e+06u l=150000u
X15 VPWR A Y VPB sky130_fd_pr__pfet_01v8_hvt ad=0p pd=0u as=0p ps=0u w=1e+06u l=150000u
X16 Y A VPWR VPB sky130_fd_pr__pfet_01v8_hvt ad=0p pd=0u as=0p ps=0u w=1e+06u l=150000u
X17 Y A VPWR VPB sky130_fd_pr__pfet_01v8_hvt ad=0p pd=0u as=0p ps=0u w=1e+06u l=150000u
X18 Y A VGND VNB sky130_fd_pr__nfet_01v8 ad=0p pd=0u as=0p ps=0u w=420000u l=150000u
X19 VGND A Y VNB sky130_fd_pr__nfet_01v8 ad=0p pd=0u as=0p ps=0u w=420000u l=150000u
X20 Y A VGND VNB sky130_fd_pr__nfet_01v8 ad=0p pd=0u as=0p ps=0u w=420000u l=150000u
X21 VGND A Y VNB sky130_fd_pr__nfet_01v8 ad=0p pd=0u as=0p ps=0u w=420000u l=150000u
X22 Y A VPWR VPB sky130_fd_pr__pfet_01v8_hvt ad=0p pd=0u as=0p ps=0u w=1e+06u l=150000u
X23 VPWR A Y VPB sky130_fd_pr__pfet_01v8_hvt ad=0p pd=0u as=0p ps=0u w=1e+06u l=150000u
X24 Y A VPWR VPB sky130_fd_pr__pfet_01v8_hvt ad=0p pd=0u as=0p ps=0u w=1e+06u l=150000u
X25 Y A VPWR VPB sky130_fd_pr__pfet_01v8_hvt ad=0p pd=0u as=0p ps=0u w=1e+06u l=150000u
X26 VPWR A Y VPB sky130_fd_pr__pfet_01v8_hvt ad=0p pd=0u as=0p ps=0u w=1e+06u l=150000u
X27 Y A VGND VNB sky130_fd_pr__nfet_01v8 ad=0p pd=0u as=0p ps=0u w=420000u l=150000u
X28 Y A VPWR VPB sky130_fd_pr__pfet_01v8_hvt ad=0p pd=0u as=0p ps=0u w=1e+06u l=150000u
X29 VPWR A Y VPB sky130_fd_pr__pfet_01v8_hvt ad=0p pd=0u as=0p ps=0u w=1e+06u l=150000u
X30 VPWR A Y VPB sky130_fd_pr__pfet_01v8_hvt ad=0p pd=0u as=0p ps=0u w=1e+06u l=150000u
X31 Y A VGND VNB sky130_fd_pr__nfet_01v8 ad=0p pd=0u as=0p ps=0u w=420000u l=150000u
X32 VGND A Y VNB sky130_fd_pr__nfet_01v8 ad=0p pd=0u as=0p ps=0u w=420000u l=150000u
X33 VPWR A Y VPB sky130_fd_pr__pfet_01v8_hvt ad=0p pd=0u as=0p ps=0u w=1e+06u l=150000u
X34 Y A VGND VNB sky130_fd_pr__nfet_01v8 ad=0p pd=0u as=0p ps=0u w=420000u l=150000u
X35 Y A VPWR VPB sky130_fd_pr__pfet_01v8_hvt ad=0p pd=0u as=0p ps=0u w=1e+06u l=150000u
X36 Y A VGND VNB sky130_fd_pr__nfet_01v8 ad=0p pd=0u as=0p ps=0u w=420000u l=150000u
X37 VPWR A Y VPB sky130_fd_pr__pfet_01v8_hvt ad=0p pd=0u as=0p ps=0u w=1e+06u l=150000u
X38 Y A VPWR VPB sky130_fd_pr__pfet_01v8_hvt ad=0p pd=0u as=0p ps=0u w=1e+06u l=150000u
X39 VGND A Y VNB sky130_fd_pr__nfet_01v8 ad=0p pd=0u as=0p ps=0u w=420000u l=150000u
.ends

.subckt sky130_fd_pr__pfet_01v8_52DJHB a_n129_n500# a_63_n500# a_15_n597# a_n81_531#
+ a_n177_n597# w_n257_n600# a_n33_n500# a_159_n500# a_111_531# a_n221_n500#
X0 a_n33_n500# a_n81_531# a_n129_n500# w_n257_n600# sky130_fd_pr__pfet_01v8 ad=1.65e+12p pd=1.066e+07u as=1.65e+12p ps=1.066e+07u w=5e+06u l=150000u
X1 a_159_n500# a_111_531# a_63_n500# w_n257_n600# sky130_fd_pr__pfet_01v8 ad=1.55e+12p pd=1.062e+07u as=1.65e+12p ps=1.066e+07u w=5e+06u l=150000u
X2 a_63_n500# a_15_n597# a_n33_n500# w_n257_n600# sky130_fd_pr__pfet_01v8 ad=0p pd=0u as=0p ps=0u w=5e+06u l=150000u
X3 a_n129_n500# a_n177_n597# a_n221_n500# w_n257_n600# sky130_fd_pr__pfet_01v8 ad=0p pd=0u as=1.55e+12p ps=1.062e+07u w=5e+06u l=150000u
.ends

.subckt sky130_fd_pr__nfet_01v8_JRYMCH a_n33_n250# a_n81_272# a_159_n250# a_15_n338#
+ a_n177_n338# a_n221_n250# a_n129_n250# a_63_n250# a_111_272# VSUBS
X0 a_n129_n250# a_n177_n338# a_n221_n250# VSUBS sky130_fd_pr__nfet_01v8 ad=8.25e+11p pd=5.66e+06u as=7.75e+11p ps=5.62e+06u w=2.5e+06u l=150000u
X1 a_n33_n250# a_n81_272# a_n129_n250# VSUBS sky130_fd_pr__nfet_01v8 ad=8.25e+11p pd=5.66e+06u as=0p ps=0u w=2.5e+06u l=150000u
X2 a_159_n250# a_111_272# a_63_n250# VSUBS sky130_fd_pr__nfet_01v8 ad=7.75e+11p pd=5.62e+06u as=8.25e+11p ps=5.66e+06u w=2.5e+06u l=150000u
X3 a_63_n250# a_15_n338# a_n33_n250# VSUBS sky130_fd_pr__nfet_01v8 ad=0p pd=0u as=0p ps=0u w=2.5e+06u l=150000u
.ends

.subckt T_Gate B A CLKB VDD sky130_fd_sc_hd__clkinv_16_0/A VSS
Xsky130_fd_sc_hd__clkinv_16_0 CLKB sky130_fd_sc_hd__clkinv_16_0/A VSS VDD VSS VDD
+ sky130_fd_sc_hd__clkinv_16
Xsky130_fd_pr__pfet_01v8_52DJHB_0 A A CLKB CLKB CLKB VDD B B CLKB B sky130_fd_pr__pfet_01v8_52DJHB
Xsky130_fd_pr__nfet_01v8_JRYMCH_0 B sky130_fd_sc_hd__clkinv_16_0/A B sky130_fd_sc_hd__clkinv_16_0/A
+ sky130_fd_sc_hd__clkinv_16_0/A B A A sky130_fd_sc_hd__clkinv_16_0/A VSS sky130_fd_pr__nfet_01v8_JRYMCH
.ends

.subckt sky130_fd_pr__nfet_01v8_H73VBR a_n33_n250# a_n81_272# a_159_n250# a_15_n338#
+ a_n177_n338# a_n221_n250# a_n129_n250# a_63_n250# a_n323_n424# a_111_272#
X0 a_n129_n250# a_n177_n338# a_n221_n250# a_n323_n424# sky130_fd_pr__nfet_01v8 ad=8.25e+11p pd=5.66e+06u as=7.75e+11p ps=5.62e+06u w=2.5e+06u l=150000u
X1 a_n33_n250# a_n81_272# a_n129_n250# a_n323_n424# sky130_fd_pr__nfet_01v8 ad=8.25e+11p pd=5.66e+06u as=0p ps=0u w=2.5e+06u l=150000u
X2 a_159_n250# a_111_272# a_63_n250# a_n323_n424# sky130_fd_pr__nfet_01v8 ad=7.75e+11p pd=5.62e+06u as=8.25e+11p ps=5.66e+06u w=2.5e+06u l=150000u
X3 a_63_n250# a_15_n338# a_n33_n250# a_n323_n424# sky130_fd_pr__nfet_01v8 ad=0p pd=0u as=0p ps=0u w=2.5e+06u l=150000u
.ends

.subckt sky130_fd_pr__cap_mim_m3_1_MJDHVK m3_n2950_n2900# c1_n2850_n2800#
X0 c1_n2850_n2800# m3_n2950_n2900# sky130_fd_pr__cap_mim_m3_1 l=2.8e+07u w=2.8e+07u
.ends

.subckt Subtractor_Mag VGND PH2 VOUT T_Gate_1/sky130_fd_sc_hd__clkinv_16_0/A T_Gate_0/B
+ T_Gate_0/A T_Gate_1/VDD T_Gate_1/B VSUBS
XT_Gate_0 T_Gate_0/B T_Gate_0/A T_Gate_0/CLKB T_Gate_1/VDD T_Gate_1/sky130_fd_sc_hd__clkinv_16_0/A
+ VSUBS T_Gate
XT_Gate_1 T_Gate_1/B VOUT T_Gate_1/CLKB T_Gate_1/VDD T_Gate_1/sky130_fd_sc_hd__clkinv_16_0/A
+ VSUBS T_Gate
Xsky130_fd_pr__nfet_01v8_H73VBR_0 T_Gate_0/B PH2 T_Gate_0/B PH2 PH2 T_Gate_0/B VGND
+ VGND VSUBS PH2 sky130_fd_pr__nfet_01v8_H73VBR
Xsky130_fd_pr__cap_mim_m3_1_MJDHVK_0 T_Gate_0/B VOUT sky130_fd_pr__cap_mim_m3_1_MJDHVK
.ends

.subckt sky130_fd_pr__nfet_01v8_RC9KLY a_50_n1050# a_n50_n1076# a_n108_n1050# VSUBS
X0 a_50_n1050# a_n50_n1076# a_n108_n1050# VSUBS sky130_fd_pr__nfet_01v8 ad=3.045e+12p pd=2.158e+07u as=3.045e+12p ps=2.158e+07u w=1.05e+07u l=500000u
.ends

.subckt CurrentMirror_layout D3 S D1 D2
Xsky130_fd_pr__nfet_01v8_RC9KLY_1 D3 D1 S S sky130_fd_pr__nfet_01v8_RC9KLY
Xsky130_fd_pr__nfet_01v8_RC9KLY_2 S D1 D3 S sky130_fd_pr__nfet_01v8_RC9KLY
Xsky130_fd_pr__nfet_01v8_RC9KLY_3 S D1 D1 S sky130_fd_pr__nfet_01v8_RC9KLY
Xsky130_fd_pr__nfet_01v8_RC9KLY_4 S D1 D3 S sky130_fd_pr__nfet_01v8_RC9KLY
Xsky130_fd_pr__nfet_01v8_RC9KLY_5 D1 D1 S S sky130_fd_pr__nfet_01v8_RC9KLY
Xsky130_fd_pr__nfet_01v8_RC9KLY_6 S D1 D2 S sky130_fd_pr__nfet_01v8_RC9KLY
Xsky130_fd_pr__nfet_01v8_RC9KLY_7 D3 D1 S S sky130_fd_pr__nfet_01v8_RC9KLY
Xsky130_fd_pr__nfet_01v8_RC9KLY_8 S D1 D3 S sky130_fd_pr__nfet_01v8_RC9KLY
Xsky130_fd_pr__nfet_01v8_RC9KLY_9 D2 D1 S S sky130_fd_pr__nfet_01v8_RC9KLY
Xsky130_fd_pr__nfet_01v8_RC9KLY_0 D3 D1 S S sky130_fd_pr__nfet_01v8_RC9KLY
.ends

.subckt sky130_fd_pr__nfet_01v8_6YBK2C a_50_n500# a_n50_n526# a_n108_n500# VSUBS
X0 a_50_n500# a_n50_n526# a_n108_n500# VSUBS sky130_fd_pr__nfet_01v8 ad=1.45e+12p pd=1.058e+07u as=1.45e+12p ps=1.058e+07u w=5e+06u l=500000u
.ends

.subckt DiffPair_layout G1 G2 D2 S D1 sky130_fd_pr__nfet_01v8_6YBK2C_9/VSUBS
Xsky130_fd_pr__nfet_01v8_6YBK2C_10 S G2 D2 sky130_fd_pr__nfet_01v8_6YBK2C_9/VSUBS
+ sky130_fd_pr__nfet_01v8_6YBK2C
Xsky130_fd_pr__nfet_01v8_6YBK2C_11 D1 G1 S sky130_fd_pr__nfet_01v8_6YBK2C_9/VSUBS
+ sky130_fd_pr__nfet_01v8_6YBK2C
Xsky130_fd_pr__nfet_01v8_6YBK2C_12 S G1 D1 sky130_fd_pr__nfet_01v8_6YBK2C_9/VSUBS
+ sky130_fd_pr__nfet_01v8_6YBK2C
Xsky130_fd_pr__nfet_01v8_6YBK2C_13 S G2 D2 sky130_fd_pr__nfet_01v8_6YBK2C_9/VSUBS
+ sky130_fd_pr__nfet_01v8_6YBK2C
Xsky130_fd_pr__nfet_01v8_6YBK2C_14 S G1 D1 sky130_fd_pr__nfet_01v8_6YBK2C_9/VSUBS
+ sky130_fd_pr__nfet_01v8_6YBK2C
Xsky130_fd_pr__nfet_01v8_6YBK2C_15 D2 G2 S sky130_fd_pr__nfet_01v8_6YBK2C_9/VSUBS
+ sky130_fd_pr__nfet_01v8_6YBK2C
Xsky130_fd_pr__nfet_01v8_6YBK2C_16 S G2 D2 sky130_fd_pr__nfet_01v8_6YBK2C_9/VSUBS
+ sky130_fd_pr__nfet_01v8_6YBK2C
Xsky130_fd_pr__nfet_01v8_6YBK2C_17 D1 G1 S sky130_fd_pr__nfet_01v8_6YBK2C_9/VSUBS
+ sky130_fd_pr__nfet_01v8_6YBK2C
Xsky130_fd_pr__nfet_01v8_6YBK2C_18 S G1 D1 sky130_fd_pr__nfet_01v8_6YBK2C_9/VSUBS
+ sky130_fd_pr__nfet_01v8_6YBK2C
Xsky130_fd_pr__nfet_01v8_6YBK2C_19 D2 G2 S sky130_fd_pr__nfet_01v8_6YBK2C_9/VSUBS
+ sky130_fd_pr__nfet_01v8_6YBK2C
Xsky130_fd_pr__nfet_01v8_6YBK2C_0 D1 G1 S sky130_fd_pr__nfet_01v8_6YBK2C_9/VSUBS sky130_fd_pr__nfet_01v8_6YBK2C
Xsky130_fd_pr__nfet_01v8_6YBK2C_1 S G2 D2 sky130_fd_pr__nfet_01v8_6YBK2C_9/VSUBS sky130_fd_pr__nfet_01v8_6YBK2C
Xsky130_fd_pr__nfet_01v8_6YBK2C_2 S G1 D1 sky130_fd_pr__nfet_01v8_6YBK2C_9/VSUBS sky130_fd_pr__nfet_01v8_6YBK2C
Xsky130_fd_pr__nfet_01v8_6YBK2C_3 D2 G2 S sky130_fd_pr__nfet_01v8_6YBK2C_9/VSUBS sky130_fd_pr__nfet_01v8_6YBK2C
Xsky130_fd_pr__nfet_01v8_6YBK2C_4 S G2 D2 sky130_fd_pr__nfet_01v8_6YBK2C_9/VSUBS sky130_fd_pr__nfet_01v8_6YBK2C
Xsky130_fd_pr__nfet_01v8_6YBK2C_5 D1 G1 S sky130_fd_pr__nfet_01v8_6YBK2C_9/VSUBS sky130_fd_pr__nfet_01v8_6YBK2C
Xsky130_fd_pr__nfet_01v8_6YBK2C_6 S G1 D1 sky130_fd_pr__nfet_01v8_6YBK2C_9/VSUBS sky130_fd_pr__nfet_01v8_6YBK2C
Xsky130_fd_pr__nfet_01v8_6YBK2C_7 D2 G2 S sky130_fd_pr__nfet_01v8_6YBK2C_9/VSUBS sky130_fd_pr__nfet_01v8_6YBK2C
Xsky130_fd_pr__nfet_01v8_6YBK2C_8 D1 G1 S sky130_fd_pr__nfet_01v8_6YBK2C_9/VSUBS sky130_fd_pr__nfet_01v8_6YBK2C
Xsky130_fd_pr__nfet_01v8_6YBK2C_9 D2 G2 S sky130_fd_pr__nfet_01v8_6YBK2C_9/VSUBS sky130_fd_pr__nfet_01v8_6YBK2C
.ends

.subckt sky130_fd_pr__pfet_01v8_lvt_EEU9S7 w_n144_n662# a_50_n600# a_n50_n626# a_n108_n600#
X0 a_50_n600# a_n50_n626# a_n108_n600# w_n144_n662# sky130_fd_pr__pfet_01v8_lvt ad=1.74e+12p pd=1.258e+07u as=1.74e+12p ps=1.258e+07u w=6e+06u l=500000u
.ends

.subckt PMOS_Load D2 D1 S
Xsky130_fd_pr__pfet_01v8_lvt_EEU9S7_0 S D1 D1 S sky130_fd_pr__pfet_01v8_lvt_EEU9S7
Xsky130_fd_pr__pfet_01v8_lvt_EEU9S7_1 S S D1 D2 sky130_fd_pr__pfet_01v8_lvt_EEU9S7
Xsky130_fd_pr__pfet_01v8_lvt_EEU9S7_2 S D2 D1 S sky130_fd_pr__pfet_01v8_lvt_EEU9S7
Xsky130_fd_pr__pfet_01v8_lvt_EEU9S7_10 S S D1 D1 sky130_fd_pr__pfet_01v8_lvt_EEU9S7
Xsky130_fd_pr__pfet_01v8_lvt_EEU9S7_3 S S D1 D1 sky130_fd_pr__pfet_01v8_lvt_EEU9S7
Xsky130_fd_pr__pfet_01v8_lvt_EEU9S7_11 S D2 D1 S sky130_fd_pr__pfet_01v8_lvt_EEU9S7
Xsky130_fd_pr__pfet_01v8_lvt_EEU9S7_4 S D1 D1 S sky130_fd_pr__pfet_01v8_lvt_EEU9S7
Xsky130_fd_pr__pfet_01v8_lvt_EEU9S7_12 S S D1 D2 sky130_fd_pr__pfet_01v8_lvt_EEU9S7
Xsky130_fd_pr__pfet_01v8_lvt_EEU9S7_5 S S D1 D2 sky130_fd_pr__pfet_01v8_lvt_EEU9S7
Xsky130_fd_pr__pfet_01v8_lvt_EEU9S7_13 S D1 D1 S sky130_fd_pr__pfet_01v8_lvt_EEU9S7
Xsky130_fd_pr__pfet_01v8_lvt_EEU9S7_6 S D2 D1 S sky130_fd_pr__pfet_01v8_lvt_EEU9S7
Xsky130_fd_pr__pfet_01v8_lvt_EEU9S7_7 S S D1 D1 sky130_fd_pr__pfet_01v8_lvt_EEU9S7
Xsky130_fd_pr__pfet_01v8_lvt_EEU9S7_14 S S D1 D1 sky130_fd_pr__pfet_01v8_lvt_EEU9S7
Xsky130_fd_pr__pfet_01v8_lvt_EEU9S7_8 S D1 D1 S sky130_fd_pr__pfet_01v8_lvt_EEU9S7
Xsky130_fd_pr__pfet_01v8_lvt_EEU9S7_15 S D2 D1 S sky130_fd_pr__pfet_01v8_lvt_EEU9S7
Xsky130_fd_pr__pfet_01v8_lvt_EEU9S7_9 S S D1 D2 sky130_fd_pr__pfet_01v8_lvt_EEU9S7
Xsky130_fd_pr__pfet_01v8_lvt_EEU9S7_16 S S D1 D2 sky130_fd_pr__pfet_01v8_lvt_EEU9S7
Xsky130_fd_pr__pfet_01v8_lvt_EEU9S7_17 S D1 D1 S sky130_fd_pr__pfet_01v8_lvt_EEU9S7
Xsky130_fd_pr__pfet_01v8_lvt_EEU9S7_18 S S D1 D1 sky130_fd_pr__pfet_01v8_lvt_EEU9S7
Xsky130_fd_pr__pfet_01v8_lvt_EEU9S7_19 S D2 D1 S sky130_fd_pr__pfet_01v8_lvt_EEU9S7
.ends

.subckt sky130_fd_pr__cap_mim_m3_1_TQVBRR m3_n2550_n2500# c1_n2450_n2400#
X0 c1_n2450_n2400# m3_n2550_n2500# sky130_fd_pr__cap_mim_m3_1 l=2.4e+07u w=2.4e+07u
.ends

.subckt sky130_fd_pr__cap_mim_m3_1_N3PKNJ c1_n3050_n1000# m3_n3150_n1100#
X0 c1_n3050_n1000# m3_n3150_n1100# sky130_fd_pr__cap_mim_m3_1 l=1e+07u w=3e+07u
.ends

.subckt sky130_fd_pr__pfet_01v8_lvt_WFBLZ7 a_50_n1420# a_n50_n1446# w_n144_n1482#
+ a_n108_n1420#
X0 a_50_n1420# a_n50_n1446# a_n108_n1420# w_n144_n1482# sky130_fd_pr__pfet_01v8_lvt ad=4.118e+12p pd=2.898e+07u as=4.118e+12p ps=2.898e+07u w=1.42e+07u l=500000u
.ends

.subckt PMOS2 S D G
Xsky130_fd_pr__pfet_01v8_lvt_WFBLZ7_19 D G S S sky130_fd_pr__pfet_01v8_lvt_WFBLZ7
Xsky130_fd_pr__pfet_01v8_lvt_WFBLZ7_0 D G S S sky130_fd_pr__pfet_01v8_lvt_WFBLZ7
Xsky130_fd_pr__pfet_01v8_lvt_WFBLZ7_1 D G S S sky130_fd_pr__pfet_01v8_lvt_WFBLZ7
Xsky130_fd_pr__pfet_01v8_lvt_WFBLZ7_2 S G S D sky130_fd_pr__pfet_01v8_lvt_WFBLZ7
Xsky130_fd_pr__pfet_01v8_lvt_WFBLZ7_3 S G S D sky130_fd_pr__pfet_01v8_lvt_WFBLZ7
Xsky130_fd_pr__pfet_01v8_lvt_WFBLZ7_4 D G S S sky130_fd_pr__pfet_01v8_lvt_WFBLZ7
Xsky130_fd_pr__pfet_01v8_lvt_WFBLZ7_5 S G S D sky130_fd_pr__pfet_01v8_lvt_WFBLZ7
Xsky130_fd_pr__pfet_01v8_lvt_WFBLZ7_6 D G S S sky130_fd_pr__pfet_01v8_lvt_WFBLZ7
Xsky130_fd_pr__pfet_01v8_lvt_WFBLZ7_7 S G S D sky130_fd_pr__pfet_01v8_lvt_WFBLZ7
Xsky130_fd_pr__pfet_01v8_lvt_WFBLZ7_8 D G S S sky130_fd_pr__pfet_01v8_lvt_WFBLZ7
Xsky130_fd_pr__pfet_01v8_lvt_WFBLZ7_9 S G S D sky130_fd_pr__pfet_01v8_lvt_WFBLZ7
Xsky130_fd_pr__pfet_01v8_lvt_WFBLZ7_20 S G S D sky130_fd_pr__pfet_01v8_lvt_WFBLZ7
Xsky130_fd_pr__pfet_01v8_lvt_WFBLZ7_10 D G S S sky130_fd_pr__pfet_01v8_lvt_WFBLZ7
Xsky130_fd_pr__pfet_01v8_lvt_WFBLZ7_21 D G S S sky130_fd_pr__pfet_01v8_lvt_WFBLZ7
Xsky130_fd_pr__pfet_01v8_lvt_WFBLZ7_11 S G S D sky130_fd_pr__pfet_01v8_lvt_WFBLZ7
Xsky130_fd_pr__pfet_01v8_lvt_WFBLZ7_22 S G S D sky130_fd_pr__pfet_01v8_lvt_WFBLZ7
Xsky130_fd_pr__pfet_01v8_lvt_WFBLZ7_12 D G S S sky130_fd_pr__pfet_01v8_lvt_WFBLZ7
Xsky130_fd_pr__pfet_01v8_lvt_WFBLZ7_23 D G S S sky130_fd_pr__pfet_01v8_lvt_WFBLZ7
Xsky130_fd_pr__pfet_01v8_lvt_WFBLZ7_13 S G S D sky130_fd_pr__pfet_01v8_lvt_WFBLZ7
Xsky130_fd_pr__pfet_01v8_lvt_WFBLZ7_24 S G S D sky130_fd_pr__pfet_01v8_lvt_WFBLZ7
Xsky130_fd_pr__pfet_01v8_lvt_WFBLZ7_14 D G S S sky130_fd_pr__pfet_01v8_lvt_WFBLZ7
Xsky130_fd_pr__pfet_01v8_lvt_WFBLZ7_15 D G S S sky130_fd_pr__pfet_01v8_lvt_WFBLZ7
Xsky130_fd_pr__pfet_01v8_lvt_WFBLZ7_16 S G S D sky130_fd_pr__pfet_01v8_lvt_WFBLZ7
Xsky130_fd_pr__pfet_01v8_lvt_WFBLZ7_17 D G S S sky130_fd_pr__pfet_01v8_lvt_WFBLZ7
Xsky130_fd_pr__pfet_01v8_lvt_WFBLZ7_18 S G S D sky130_fd_pr__pfet_01v8_lvt_WFBLZ7
.ends

.subckt OpampM VN VP IBIAS VDD VSS VO
XCurrentMirror_layout_0 VO VSS IBIAS DiffPair_layout_0/S CurrentMirror_layout
XDiffPair_layout_0 VN VP PMOS2_0/G DiffPair_layout_0/S PMOS_Load_0/D1 VSS DiffPair_layout
XPMOS_Load_0 PMOS2_0/G PMOS_Load_0/D1 VDD PMOS_Load
Xsky130_fd_pr__cap_mim_m3_1_TQVBRR_0 VO PMOS2_0/G sky130_fd_pr__cap_mim_m3_1_TQVBRR
Xsky130_fd_pr__cap_mim_m3_1_N3PKNJ_0 VDD VSS sky130_fd_pr__cap_mim_m3_1_N3PKNJ
Xsky130_fd_pr__cap_mim_m3_1_N3PKNJ_1 VDD VSS sky130_fd_pr__cap_mim_m3_1_N3PKNJ
XPMOS2_0 VDD VO PMOS2_0/G PMOS2
.ends

.subckt sky130_fd_pr__cap_mim_m3_1_4RKXMF m3_n2950_n2900# c1_n2850_n2800#
X0 c1_n2850_n2800# m3_n2950_n2900# sky130_fd_pr__cap_mim_m3_1 l=2.8e+07u w=2.8e+07u
.ends

.subckt sky130_fd_pr__nfet_01v8_FR7DL7 a_n33_n250# a_n81_272# a_159_n250# a_15_n338#
+ a_n177_n338# a_n221_n250# a_n129_n250# a_63_n250# a_n323_n424# a_111_272#
X0 a_n129_n250# a_n177_n338# a_n221_n250# a_n323_n424# sky130_fd_pr__nfet_01v8 ad=8.25e+11p pd=5.66e+06u as=7.75e+11p ps=5.62e+06u w=2.5e+06u l=150000u
X1 a_n33_n250# a_n81_272# a_n129_n250# a_n323_n424# sky130_fd_pr__nfet_01v8 ad=8.25e+11p pd=5.66e+06u as=0p ps=0u w=2.5e+06u l=150000u
X2 a_159_n250# a_111_272# a_63_n250# a_n323_n424# sky130_fd_pr__nfet_01v8 ad=7.75e+11p pd=5.62e+06u as=8.25e+11p ps=5.66e+06u w=2.5e+06u l=150000u
X3 a_63_n250# a_15_n338# a_n33_n250# a_n323_n424# sky130_fd_pr__nfet_01v8 ad=0p pd=0u as=0p ps=0u w=2.5e+06u l=150000u
.ends

.subckt co VDD VREF VIN VOUT PH1 PH2 VSS
XT_Gate_0 T_Gate_0/B VIN T_Gate_0/CLKB VDD PH1 VSS T_Gate
XT_Gate_1 VOUT T_Gate_1/A T_Gate_1/CLKB VDD PH2 VSS T_Gate
Xsky130_fd_pr__cap_mim_m3_1_4RKXMF_0 T_Gate_1/A T_Gate_0/B sky130_fd_pr__cap_mim_m3_1_4RKXMF
Xsky130_fd_pr__nfet_01v8_FR7DL7_0 VREF PH1 VREF PH1 PH1 VREF T_Gate_1/A T_Gate_1/A
+ VSS PH1 sky130_fd_pr__nfet_01v8_FR7DL7
Xsky130_fd_pr__nfet_01v8_FR7DL7_1 VREF PH2 VREF PH2 PH2 VREF T_Gate_0/B T_Gate_0/B
+ VSS PH2 sky130_fd_pr__nfet_01v8_FR7DL7
.ends

.subckt sky130_fd_pr__cap_mim_m3_1_D7CHNQ c1_n1550_n1500# m3_n1650_n1600#
X0 c1_n1550_n1500# m3_n1650_n1600# sky130_fd_pr__cap_mim_m3_1 l=1.5e+07u w=1.5e+07u
.ends

.subckt Integrator_n co_0/VIN co_0/PH1 co_0/VREF co_0/PH2 OpampM_0/IBIAS co_0/VDD
+ VSUBS OpampM_0/VO
XOpampM_0 co_0/VOUT co_0/VREF OpampM_0/IBIAS co_0/VDD VSUBS OpampM_0/VO OpampM
Xco_0 co_0/VDD co_0/VREF co_0/VIN co_0/VOUT co_0/PH1 co_0/PH2 VSUBS co
Xsky130_fd_pr__cap_mim_m3_1_D7CHNQ_0 co_0/VOUT OpampM_0/VO sky130_fd_pr__cap_mim_m3_1_D7CHNQ
.ends

.subckt sky130_fd_sc_hd__bufbuf_16 A X VGND VPWR VNB VPB
X0 X a_549_47# VPWR VPB sky130_fd_pr__pfet_01v8_hvt ad=2.16e+12p pd=2.032e+07u as=3.76e+12p ps=3.552e+07u w=1e+06u l=150000u
X1 X a_549_47# VGND VNB sky130_fd_pr__nfet_01v8 ad=1.404e+12p pd=1.472e+07u as=2.444e+12p ps=2.572e+07u w=650000u l=150000u
X2 VPWR a_215_47# a_549_47# VPB sky130_fd_pr__pfet_01v8_hvt ad=0p pd=0u as=8.1e+11p ps=7.62e+06u w=1e+06u l=150000u
X3 VGND a_109_47# a_215_47# VNB sky130_fd_pr__nfet_01v8 ad=0p pd=0u as=3.445e+11p ps=3.66e+06u w=650000u l=150000u
X4 X a_549_47# VPWR VPB sky130_fd_pr__pfet_01v8_hvt ad=0p pd=0u as=0p ps=0u w=1e+06u l=150000u
X5 VGND a_109_47# a_215_47# VNB sky130_fd_pr__nfet_01v8 ad=0p pd=0u as=0p ps=0u w=650000u l=150000u
X6 VGND a_215_47# a_549_47# VNB sky130_fd_pr__nfet_01v8 ad=0p pd=0u as=5.265e+11p ps=5.52e+06u w=650000u l=150000u
X7 a_549_47# a_215_47# VPWR VPB sky130_fd_pr__pfet_01v8_hvt ad=0p pd=0u as=0p ps=0u w=1e+06u l=150000u
X8 VPWR a_549_47# X VPB sky130_fd_pr__pfet_01v8_hvt ad=0p pd=0u as=0p ps=0u w=1e+06u l=150000u
X9 VGND a_215_47# a_549_47# VNB sky130_fd_pr__nfet_01v8 ad=0p pd=0u as=0p ps=0u w=650000u l=150000u
X10 VGND a_549_47# X VNB sky130_fd_pr__nfet_01v8 ad=0p pd=0u as=0p ps=0u w=650000u l=150000u
X11 VGND a_549_47# X VNB sky130_fd_pr__nfet_01v8 ad=0p pd=0u as=0p ps=0u w=650000u l=150000u
X12 X a_549_47# VPWR VPB sky130_fd_pr__pfet_01v8_hvt ad=0p pd=0u as=0p ps=0u w=1e+06u l=150000u
X13 X a_549_47# VGND VNB sky130_fd_pr__nfet_01v8 ad=0p pd=0u as=0p ps=0u w=650000u l=150000u
X14 a_549_47# a_215_47# VGND VNB sky130_fd_pr__nfet_01v8 ad=0p pd=0u as=0p ps=0u w=650000u l=150000u
X15 VPWR a_549_47# X VPB sky130_fd_pr__pfet_01v8_hvt ad=0p pd=0u as=0p ps=0u w=1e+06u l=150000u
X16 X a_549_47# VGND VNB sky130_fd_pr__nfet_01v8 ad=0p pd=0u as=0p ps=0u w=650000u l=150000u
X17 VPWR a_549_47# X VPB sky130_fd_pr__pfet_01v8_hvt ad=0p pd=0u as=0p ps=0u w=1e+06u l=150000u
X18 X a_549_47# VPWR VPB sky130_fd_pr__pfet_01v8_hvt ad=0p pd=0u as=0p ps=0u w=1e+06u l=150000u
X19 a_549_47# a_215_47# VGND VNB sky130_fd_pr__nfet_01v8 ad=0p pd=0u as=0p ps=0u w=650000u l=150000u
X20 a_549_47# a_215_47# VGND VNB sky130_fd_pr__nfet_01v8 ad=0p pd=0u as=0p ps=0u w=650000u l=150000u
X21 X a_549_47# VGND VNB sky130_fd_pr__nfet_01v8 ad=0p pd=0u as=0p ps=0u w=650000u l=150000u
X22 X a_549_47# VPWR VPB sky130_fd_pr__pfet_01v8_hvt ad=0p pd=0u as=0p ps=0u w=1e+06u l=150000u
X23 VPWR a_215_47# a_549_47# VPB sky130_fd_pr__pfet_01v8_hvt ad=0p pd=0u as=0p ps=0u w=1e+06u l=150000u
X24 VPWR a_549_47# X VPB sky130_fd_pr__pfet_01v8_hvt ad=0p pd=0u as=0p ps=0u w=1e+06u l=150000u
X25 VGND a_549_47# X VNB sky130_fd_pr__nfet_01v8 ad=0p pd=0u as=0p ps=0u w=650000u l=150000u
X26 VPWR a_549_47# X VPB sky130_fd_pr__pfet_01v8_hvt ad=0p pd=0u as=0p ps=0u w=1e+06u l=150000u
X27 a_549_47# a_215_47# VPWR VPB sky130_fd_pr__pfet_01v8_hvt ad=0p pd=0u as=0p ps=0u w=1e+06u l=150000u
X28 X a_549_47# VPWR VPB sky130_fd_pr__pfet_01v8_hvt ad=0p pd=0u as=0p ps=0u w=1e+06u l=150000u
X29 VGND a_549_47# X VNB sky130_fd_pr__nfet_01v8 ad=0p pd=0u as=0p ps=0u w=650000u l=150000u
X30 VGND a_549_47# X VNB sky130_fd_pr__nfet_01v8 ad=0p pd=0u as=0p ps=0u w=650000u l=150000u
X31 X a_549_47# VPWR VPB sky130_fd_pr__pfet_01v8_hvt ad=0p pd=0u as=0p ps=0u w=1e+06u l=150000u
X32 VGND a_215_47# a_549_47# VNB sky130_fd_pr__nfet_01v8 ad=0p pd=0u as=0p ps=0u w=650000u l=150000u
X33 VGND a_549_47# X VNB sky130_fd_pr__nfet_01v8 ad=0p pd=0u as=0p ps=0u w=650000u l=150000u
X34 VGND a_549_47# X VNB sky130_fd_pr__nfet_01v8 ad=0p pd=0u as=0p ps=0u w=650000u l=150000u
X35 VPWR a_109_47# a_215_47# VPB sky130_fd_pr__pfet_01v8_hvt ad=0p pd=0u as=5.3e+11p ps=5.06e+06u w=1e+06u l=150000u
X36 VGND a_549_47# X VNB sky130_fd_pr__nfet_01v8 ad=0p pd=0u as=0p ps=0u w=650000u l=150000u
X37 a_215_47# a_109_47# VPWR VPB sky130_fd_pr__pfet_01v8_hvt ad=0p pd=0u as=0p ps=0u w=1e+06u l=150000u
X38 VPWR a_549_47# X VPB sky130_fd_pr__pfet_01v8_hvt ad=0p pd=0u as=0p ps=0u w=1e+06u l=150000u
X39 X a_549_47# VGND VNB sky130_fd_pr__nfet_01v8 ad=0p pd=0u as=0p ps=0u w=650000u l=150000u
X40 a_215_47# a_109_47# VGND VNB sky130_fd_pr__nfet_01v8 ad=0p pd=0u as=0p ps=0u w=650000u l=150000u
X41 VPWR a_109_47# a_215_47# VPB sky130_fd_pr__pfet_01v8_hvt ad=0p pd=0u as=0p ps=0u w=1e+06u l=150000u
X42 X a_549_47# VPWR VPB sky130_fd_pr__pfet_01v8_hvt ad=0p pd=0u as=0p ps=0u w=1e+06u l=150000u
X43 VPWR a_215_47# a_549_47# VPB sky130_fd_pr__pfet_01v8_hvt ad=0p pd=0u as=0p ps=0u w=1e+06u l=150000u
X44 X a_549_47# VGND VNB sky130_fd_pr__nfet_01v8 ad=0p pd=0u as=0p ps=0u w=650000u l=150000u
X45 X a_549_47# VGND VNB sky130_fd_pr__nfet_01v8 ad=0p pd=0u as=0p ps=0u w=650000u l=150000u
X46 a_109_47# A VPWR VPB sky130_fd_pr__pfet_01v8_hvt ad=2.6e+11p pd=2.52e+06u as=0p ps=0u w=1e+06u l=150000u
X47 VPWR a_549_47# X VPB sky130_fd_pr__pfet_01v8_hvt ad=0p pd=0u as=0p ps=0u w=1e+06u l=150000u
X48 a_549_47# a_215_47# VPWR VPB sky130_fd_pr__pfet_01v8_hvt ad=0p pd=0u as=0p ps=0u w=1e+06u l=150000u
X49 VPWR a_549_47# X VPB sky130_fd_pr__pfet_01v8_hvt ad=0p pd=0u as=0p ps=0u w=1e+06u l=150000u
X50 a_109_47# A VGND VNB sky130_fd_pr__nfet_01v8 ad=1.69e+11p pd=1.82e+06u as=0p ps=0u w=650000u l=150000u
X51 X a_549_47# VGND VNB sky130_fd_pr__nfet_01v8 ad=0p pd=0u as=0p ps=0u w=650000u l=150000u
.ends

.subckt sky130_fd_sc_hd__clkdlybuf4s50_1 A X VGND VPWR VNB VPB
X0 a_283_47# a_27_47# VPWR VPB sky130_fd_pr__pfet_01v8_hvt ad=2.173e+11p pd=2.17e+06u as=6.517e+11p ps=5.37e+06u w=820000u l=500000u
X1 VPWR A a_27_47# VPB sky130_fd_pr__pfet_01v8_hvt ad=0p pd=0u as=2.7e+11p ps=2.54e+06u w=1e+06u l=150000u
X2 VPWR a_283_47# a_390_47# VPB sky130_fd_pr__pfet_01v8_hvt ad=0p pd=0u as=2.173e+11p ps=2.17e+06u w=820000u l=500000u
X3 VGND a_283_47# a_390_47# VNB sky130_fd_pr__nfet_01v8 ad=4.027e+11p pd=3.97e+06u as=1.7225e+11p ps=1.83e+06u w=650000u l=500000u
X4 X a_390_47# VPWR VPB sky130_fd_pr__pfet_01v8_hvt ad=3.55e+11p pd=2.71e+06u as=0p ps=0u w=1e+06u l=150000u
X5 VGND A a_27_47# VNB sky130_fd_pr__nfet_01v8 ad=0p pd=0u as=1.134e+11p ps=1.38e+06u w=420000u l=150000u
X6 a_283_47# a_27_47# VGND VNB sky130_fd_pr__nfet_01v8 ad=1.69e+11p pd=1.82e+06u as=0p ps=0u w=650000u l=500000u
X7 X a_390_47# VGND VNB sky130_fd_pr__nfet_01v8 ad=1.491e+11p pd=1.55e+06u as=0p ps=0u w=420000u l=150000u
.ends

.subckt Delay_Block VOUT VIN VSS VDD
Xsky130_fd_sc_hd__clkdlybuf4s50_1_0 sky130_fd_sc_hd__clkdlybuf4s50_1_2/X VOUT VSS
+ VDD VSS VDD sky130_fd_sc_hd__clkdlybuf4s50_1
Xsky130_fd_sc_hd__clkdlybuf4s50_1_1 VIN sky130_fd_sc_hd__clkdlybuf4s50_1_2/A VSS VDD
+ VSS VDD sky130_fd_sc_hd__clkdlybuf4s50_1
Xsky130_fd_sc_hd__clkdlybuf4s50_1_2 sky130_fd_sc_hd__clkdlybuf4s50_1_2/A sky130_fd_sc_hd__clkdlybuf4s50_1_2/X
+ VSS VDD VSS VDD sky130_fd_sc_hd__clkdlybuf4s50_1
.ends

.subckt sky130_fd_pr__nfet_01v8_WWN8PW a_n33_n250# a_n81_272# a_159_n250# a_15_n338#
+ a_n177_n338# a_n221_n250# a_n129_n250# a_63_n250# a_111_272# VSUBS
X0 a_n129_n250# a_n177_n338# a_n221_n250# VSUBS sky130_fd_pr__nfet_01v8 ad=8.25e+11p pd=5.66e+06u as=7.75e+11p ps=5.62e+06u w=2.5e+06u l=150000u
X1 a_n33_n250# a_n81_272# a_n129_n250# VSUBS sky130_fd_pr__nfet_01v8 ad=8.25e+11p pd=5.66e+06u as=0p ps=0u w=2.5e+06u l=150000u
X2 a_159_n250# a_111_272# a_63_n250# VSUBS sky130_fd_pr__nfet_01v8 ad=7.75e+11p pd=5.62e+06u as=8.25e+11p ps=5.66e+06u w=2.5e+06u l=150000u
X3 a_63_n250# a_15_n338# a_n33_n250# VSUBS sky130_fd_pr__nfet_01v8 ad=0p pd=0u as=0p ps=0u w=2.5e+06u l=150000u
.ends

.subckt DAC VREF_P VREF_N VOUT VIN VDD VSS
Xsky130_fd_sc_hd__clkinv_16_0 sky130_fd_sc_hd__clkinv_16_0/Y VIN VSS VDD VSS VDD sky130_fd_sc_hd__clkinv_16
Xsky130_fd_pr__pfet_01v8_52DJHB_0 VREF_N VREF_N sky130_fd_sc_hd__clkinv_16_0/Y sky130_fd_sc_hd__clkinv_16_0/Y
+ sky130_fd_sc_hd__clkinv_16_0/Y VDD VOUT VOUT sky130_fd_sc_hd__clkinv_16_0/Y VOUT